.papers/SPECTRAL_CLUSTERING_2018/netw_data/data16m.m
% data16m.m (16 Machine System Data)
% This is a 16-machine system with 86 transmission lines and
% 68 buses. Data are extracted from the GE final report
% entitled "Singular Perturbations, Coherency and
% Aggregation of Dynamic Systems," pp.6-42, July 1981.

% Bus data format
% bus: number,voltage(pu),angle(degree),p_gen(pu),q_gen(pu),
%      p_load(pu), q_load(pu), conductance(pu), susceptance(pu),
%      bus_type - 1, swing bus
%               - 2, generator bus (PV bus)
%               - 3, load bus (PQ bus)


bus = [ 1 1.00    0.00   0.00   0.00   2.527  1.1856  0.00 0.00  3;
        2 1.00    0.00   0.00   0.00   0.00   0.00    0.00 0.00  3;
        3 1.00    0.00   0.00   0.00   3.22   0.02    0.00 0.00  3;
        4 1.00    0.00   0.00   0.00   5.00   1.840   0.00 0.00  3;
        5 1.00    0.00   0.00   0.00   0.00   0.00    0.00 0.00  3;
        6 1.00    0.00   0.00   0.00   0.00   0.00    0.00 0.00  3;
        7 1.00    0.00   0.00   0.00   2.34   0.84    0.00 0.00  3;
        8 1.00    0.00   0.00   0.00   5.22   1.77    0.00 0.00  3;
        9 1.00    0.00   0.00   0.00   1.04   1.25    0.00 0.00  3;
       10 1.00    0.00   0.00   0.00   0.00   0.00    0.00 0.00  3;
       11 1.00    0.00   0.00   0.00   0.00   0.00    0.00 0.00  3;
       12 1.00    0.00   0.00   0.00   0.09   0.88    0.00 0.00  3;
       13 1.00    0.00   0.00   0.00   0.00   0.00    0.00 0.00  3;
       14 1.00    0.00   0.00   0.00   0.00   0.00    0.00 0.00  3;
       15 1.00    0.00   0.00   0.00   3.200  1.5300  0.00 0.00  3;
       16 1.00    0.00   0.00   0.00   3.290  0.32    0.00 0.00  3;
       17 1.00    0.00   0.00   0.00   0.00   0.00    0.00 0.00  3;
       18 1.00    0.00   0.00   0.00   1.58   0.30    0.00 0.00  3;
       19 1.00    0.00   0.00   0.00   0.00   0.00    0.00 0.00  3;
       20 1.00    0.00   0.00   0.00   6.800  1.03    0.00 0.00  3;
       21 1.00    0.00   0.00   0.00   2.740  1.15    0.00 0.00  3;
       22 1.00    0.00   0.00   0.00   0.00   0.00    0.00 0.00  3;
       23 1.00    0.00   0.00   0.00   2.480  0.85    0.00 0.00  3;
       24 1.00    0.00   0.00   0.00   3.09  -0.92    0.00 0.00  3;
       25 1.00    0.00   0.00   0.00   2.24   0.47    0.00 0.00  3;
       26 1.00    0.00   0.00   0.00   1.39   0.17    0.00 0.00  3;
       27 1.00    0.00   0.00   0.00   2.810  0.76    0.00 0.00  3;
       28 1.00    0.00   0.00   0.00   2.060  0.28    0.00 0.00  3;
       29 1.00    0.00   0.00   0.00   2.840  0.27    0.00 0.00  3;
       30 1.00    0.00   0.00   0.00   0.00   0.00    0.00 0.00  3;
       31 1.00    0.00   0.00   0.00   0.00   0.00    0.00 0.00  3;
       32 1.00    0.00   0.00   0.00   0.00   0.00    0.00 0.00  3;
       33 1.00    0.00   0.00   0.00   1.12   0.00    0.00 0.00  3;
       34 1.00    0.00   0.00   0.00   0.00   0.00    0.00 0.00  3;
       35 1.00    0.00   0.00   0.00   0.00   0.00    0.00 0.00  3;
       36 1.00    0.00   0.00   0.00   1.02  -0.1946  0.00 0.00  3;
       37 1.00    0.00   0.00   0.00  60.00   3.00    0.00 0.00  3;
       38 1.00    0.00   0.00   0.00   0.00   0.00    0.00 0.00  3;
       39 1.00    0.00   0.00   0.00   2.67   0.126   0.00 0.00  3;
       40 1.00    0.00   0.00   0.00   0.6563 0.2353  0.00 0.00  3;
       41 1.00    0.00   0.00   0.00  10.00   2.50    0.00 0.00  3;
       42 1.00    0.00   0.00   0.00  11.50   2.50    0.00 0.00  3;
       43 1.00    0.00   0.00   0.00   0.00   0.00    0.00 0.00  3;
       44 1.00    0.00   0.00   0.00   2.6755 0.0484  0.00 0.00  3;
       45 1.00    0.00   0.00   0.00   2.08   0.21    0.00 0.00  3;
       46 1.00    0.00   0.00   0.00   1.507  0.285   0.00 0.00  3;
       47 1.00    0.00   0.00   0.00   2.0312 0.3259  0.00 0.00  3;
       48 1.00    0.00   0.00   0.00   2.4120 0.022   0.00 0.00  3;
       49 1.00    0.00   0.00   0.00   1.6400 0.29    0.00 0.00  3;
       50 1.00    0.00   0.00   0.00   1.00  -1.47    0.00 0.00  3;
       51 1.00    0.00   0.00   0.00   3.37  -1.22    0.00 0.00  3;
       52 1.00    0.00   0.00   0.00  24.70   1.23    0.00 0.00  3;
       53 1.045   0.00   2.50   0.00   0.00   0.00    0.00 0.00  2;
       54 0.98    0.00   5.45   0.00   0.00   0.00    0.00 0.00  2;
       55 0.983   0.00   6.50   0.00   0.00   0.00    0.00 0.00  2;
       56 0.997   0.00   6.32   0.00   0.00   0.00    0.00 0.00  2;
       57 1.011   0.00   5.052  0.00   0.00   0.00    0.00 0.00  2;
       58 1.050   0.00   7.00   0.00   0.00   0.00    0.00 0.00  2;
       59 1.063   0.00   5.60   0.00   0.00   0.00    0.00 0.00  2;
       60 1.03    0.00   5.40   0.00   0.00   0.00    0.00 0.00  2;
       61 1.025   0.00   8.00   0.00   0.00   0.00    0.00 0.00  2;
       62 1.010   0.00   5.00   0.00   0.00   0.00    0.00 0.00  2;
       63 1.000   0.00  10.000  0.00   0.00   0.00    0.00 0.00  2;
       64 1.0156  0.00  13.50   0.00   0.00   0.00    0.00 0.00  2;
       65 1.011   0.00   0.00   0.00   0.00   0.00    0.00 0.00  1;
       66 1.00    0.00  17.85   0.00   0.00   0.00    0.00 0.00  2;
       67 1.000   0.00  10.00   0.00   0.00   0.00    0.00 0.00  2;
       68 1.000   0.00  40.00   0.00   0.00   0.00    0.00 0.00  2];


% Line data format
% line: from bus, to bus, resistance(pu), reactance(pu),
%       line charging(pu), tap ratio, phase shift(deg)

line = [ 1   2  0.0035  0.0411  0.6987  0      0.;
	 1  30  0.0008  0.0074  0.48    0      0.;
	 2   3  0.0013  0.0151  0.2572  0      0.;
	 2  25  0.007   0.0086  0.146   0      0.;
	 2  53  0.      0.0181  0.      1.025  0.;
	 3   4  0.0013  0.0213  0.2214  0.     0.;
	 3  18  0.0011  0.0133  0.2138  0.     0.;
	 4   5  0.0008  0.0128  0.1342  0.     0.;
	 4  14  0.0008  0.0129  0.1382  0.     0.;
	 5   6  0.0002  0.0026  0.0434  0.     0.;
	 5   8  0.0008  0.0112  0.1476  0.     0.;
	 6   7  0.0006  0.0092  0.1130  0.     0.;
	 6  11  0.0007  0.0082  0.1389  0.     0.;
	 6  54  0.      0.0250  0.      1.07   0.;
	 7   8  0.0004  0.0046  0.078   0.     0.;
	 8   9  0.0023  0.0363  0.3804  0.     0.;
	 9  30  0.0019  0.0183  0.29    0.     0.;
	10  11  0.0004  0.0043  0.0729  0.     0.;
	10  13  0.0004  0.0043  0.0729  0.     0.;
	10  55  0.      0.02    0.      1.07   0.;
	12  11  0.0016  0.0435  0.      1.06   0.;
	12  13  0.0016  0.0435  0.      1.06   0.;
	13  14  0.0009  0.0101  0.1723  0.     0.;
	14  15  0.0018  0.0217  0.366   0.     0.;
	15  16  0.0009  0.0094  0.171   0.     0.;
	16  17  0.0007  0.0089  0.1342  0.     0.;
	16  19  0.0016  0.0195  0.3040  0.     0.;
	16  21  0.0008  0.0135  0.2548  0.     0.;
	16  24  0.0003  0.0059  0.0680  0.     0.;
	17  18  0.0007  0.0082  0.1319  0.     0.;
	17  27  0.0013  0.0173  0.3216  0.     0.;
	19  20  0.0007  0.0138  0.      1.06   0.;
	19  56  0.0007  0.0142  0.      1.07   0.;
	20  57  0.0009  0.0180  0.      1.009  0.;
	21  22  0.0008  0.0140  0.2565  0.     0.;
	22  23  0.0006  0.0096  0.1846  0.     0.;
	22  58  0.      0.0143  0.      1.025  0.;
	23  24  0.0022  0.0350  0.3610  0.     0.;
	23  59  0.0005  0.0272  0.      0.     0.;
	25  26  0.0032  0.0323  0.5310  0.     0.;
	25  60  0.0006  0.0232  0.      1.025  0.;
	26  27  0.0014  0.0147  0.2396  0.     0.;
	26  28  0.0043  0.0474  0.7802  0.     0.;
	26  29  0.0057  0.0625  1.0290  0.     0.;
	28  29  0.0014  0.0151  0.2490  0.     0.;
	29  61  0.0008  0.0156  0.      1.025  0.;
	 9  30  0.0019  0.0183  0.29    0.     0.;
	 9  36  0.0022  0.0196  0.34    0.     0.;
	 9  36  0.0022  0.0196  0.34    0.     0.;
	36  37  0.0005  0.0045  0.32    0.     0.;
	34  36  0.0033  0.0111  1.45    0.     0.;
	35  34  0.0001  0.0074  0.      0.946  0.;
	33  34  0.0011  0.0157  0.202   0.     0.;
	32  33  0.0008  0.0099  0.168   0.     0.;
	30  31  0.0013  0.0187  0.333   0.     0.;
	30  32  0.0024  0.0288  0.488   0.     0.;
	 1  31  0.0016  0.0163  0.25    0.     0.;
	31  38  0.0011  0.0147  0.247   0.     0.;
	33  38  0.0036  0.0444  0.693   0.     0.;
	38  46  0.0022  0.0284  0.43    0.     0.;
	46  49  0.0018  0.0274  0.27    0.     0.;
	 1  47  0.0013  0.0188  1.31    0.     0.;
	47  48  0.0025  0.0268  0.40    0.     0.;
	47  48  0.0025  0.0268  0.40    0.     0.;
	48  40  0.0020  0.022   1.28    0.     0.;
	35  45  0.0007  0.0175  1.39    0.     0.;
	37  43  0.0005  0.0276  0.      0.     0.;
	43  44  0.0001  0.0011  0.      0.     0.;
	44  45  0.0025  0.073   0.      0.     0.;
	39  44  0.      0.0411  0.      0.     0.;
	39  45  0.      0.0839  0.      0.     0.;
	45  51  0.0004  0.0105  0.72    0.     0.;
	50  52  0.0012  0.0288  2.06    0.     0.;
	50  51  0.0009  0.0221  1.62    0.     0.;
	49  52  0.0076  0.1141  1.16    0.     0.;
	52  42  0.0040  0.0600  2.25    0.     0.;
	42  41  0.0040  0.0600  2.25    0.     0.;
	41  40  0.0060  0.0840  3.15    0.     0.;
	31  62  0.      0.026   0.      1.04   0.;
	32  63  0.      0.013   0.      1.04   0.;
	36  64  0.      0.0075  0.      1.04   0.;
	37  65  0.      0.0033  0.      1.04   0.;
	41  66  0.      0.0015  0.      1.     0.;
	42  67  0.      0.0015  0.      1.     0.;
	52  68  0.      0.0030  0.      1.     0.;
	 1  27  0.032   0.32    0.41    1.     0.];


% Machine data format
%       1. machine number,
%       2. bus number,
%       3. base mva,
%       4. leakage reactance x_l(pu),
%       5. resistance r_a(pu),
%       6. d-axis sychronous reactance x_d(pu),
%       7. d-axis transient reactance x'_d(pu),
%       8. d-axis subtransient reactance x"_d(pu),
%       9. d-axis open-circuit time constant T'_do(sec),
%      10. d-axis open-circuit subtransient time constant
%                T"_do(sec),
%      11. q-axis sychronous reactance x_q(pu),
%      12. q-axis transient reactance x'_q(pu),
%      13. q-axis subtransient reactance x"_q(pu),
%      14. q-axis open-circuit time constant T'_qo(sec),
%      15. q-axis open circuit subtransient time constant
%                T"_qo(sec),
%      16. inertia constant H(sec),
%      17. damping coefficient d_o(pu),
%      18. dampling coefficient d_1(pu),
%      19. bus number
%      20. saturation factor S(1.0)
%      21. saturation factor S(1.2)
% note: all the following machines use transient reactance model
mac_con = [
1 53 100 0.0125 0.0  0.1    0.031   0 10.2  0 0.069  0.031 0 1.5 0  42.  4.0 0  53  0 0 ;
2 54 100 0.035  0.0  0.295  0.0697  0  6.56 0 0.282  0.0697 0 1.5 0  30.2 9.75 0 54  0 0;
3 55 100 0.0304  0.0 0.2495 0.0531  0  5.7  0 0.237  0.0531 0 1.5 0  35.8 10 0   55  0 0;
4 56 100 0.0295 0.0 0.262  0.0436  0  5.69 0 0.258  0.0436 0 1.5 0  28.6 10 0  56   0 0;
5 57 100 0.027  0.0  0.33   0.066   0  5.4  0 0.31   0.066 0 0.44 0  26.   3 0  57  0 0;
6 58 100 0.0224 0.0 0.254  0.05    0  7.3  0 0.241  0.05 0 0.4 0  34.8 10 0  58  0 0;
7 59 100 0.0322 0.0 0.295  0.049   0  5.66 0 0.292  0.049 0 1.5 0  26.4  8 0  59  0 0;
8 60 100 0.028  0.0 0.29   0.057   0  6.7  0 0.280  0.057 0 0.41 0  24.3  9 0  60  0 0 ;
9 61 100 0.0298 0.0 0.2106 0.057   0  4.79 0 0.205  0.057 0 1.96 0  34.5 14 0  61  0 0;
10 62 100 0.199  0.0 0.169  0.0457  0  9.37 0 0.115  0 0 0 0  31.0 5.56 0 62 0 0;
11 63 100 0.0103 0.0    0.128  0.018   0  4.1  0 0.123  0 0 0 0  28.2 13.6 0 63 0 0;
12 64 100 0.022  0.0    0.101  0.031   0  7.4  0 0.095  0 0 0 0  92.3 13.5 0 64 0 0;
13 65 100 0.0049 0.0    0.0296 0.0055  0  5.9  0 0.286  0 0 0 0 248.0 33 0 65 0 0;
14 66 100 0.0017 0.0 0.018  0.00285 0  4.1  0 0.0173 0 0 0 0 300.0 100 0 66 0 0;
15 67 100 0.0017 0.0 0.018  0.00285 0  4.1  0 0.0173 0 0 0 0 300.0 100 0 67 0 0;
16 68 100 0.0041 0.0 0.0356 0.0071  0  7.8  0 0.0334 0 0 0 0 225.0 50 0 68 0 0] ;

%asyn_damp = [0  1. 1. 1. 1. 1. 1. 1. 1. .1 .1 .1 .1 .1 .1 .1
%             1. 0  1. 1. 1. 1. 1. 1. 1. .1 .1 .1 .1 .1 .1 .1
%             1. 1. 0  1. 1. 1. 1. 1. 1. .1 .1 .1 .1 .1 .1 .1
%             1. 1. 1. 0  1. 1. 1. 1. 1. .1 .1 .1 .1 .1 .1 .1
%             1. 1. 1. 1. 0  1. 1. 1. 1. .1 .1 .1 .1 .1 .1 .1
%             1. 1. 1. 1. 1. 0  1. 1. 1. .1 .1 .1 .1 .1 .1 .1
%             1. 1. 1. 1. 1. 1. 0  1. 1. .1 .1 .1 .1 .1 .1 .1
%             1. 1. 1. 1. 1. 1. 1. 0  1. .1 .1 .1 .1 .1 .1 .1
%             1. 1. 1. 1. 1. 1. 1. 1. 0  .1 .1 .1 .1 .1 .1 .1
%             .1 .1 .1 .1 .1 .1 .1 .1 .1 0  1. 1. 1. .1 .1 .1
%             .1 .1 .1 .1 .1 .1 .1 .1 .1 1. 0  1. 1. .1 .1 .1
%             .1 .1 .1 .1 .1 .1 .1 .1 .1 1. 1. 0  1. .1 .1 .1
%             .1 .1 .1 .1 .1 .1 .1 .1 .1 1. 1. 1. 0  .1 .1 .1
%             .1 .1 .1 .1 .1 .1 .1 .1 .1 .1 .1 .1 .1 0  .1 .1
%             .1 .1 .1 .1 .1 .1 .1 .1 .1 .1 .1 .1 .1 .1 0  .1
%             .1 .1 .1 .1 .1 .1 .1 .1 .1 .1 .1 .1 .1 .1 .1 0 ];

asyn_damp = zeros(16,16);
% exciter data dc12 model
%     1 - exciter type (1 for DC1, 2 for DC2)
%     2 - machine number
%     3 - input filter time constant T_R
%     4 - voltage regulator gain K_A
%     5 - voltage regulator time constant T_A
%     6 - voltage regulator time constant T_B
%     7 - voltage regulator time constant T_C
%     8 - maximum voltage regulator output V_Rmax
%     9 - minimum voltage regulator output V_Rmin
%    10 - exciter constant K_E
%    11 - exciter time constant T_E
%    12 - E_1
%    13 - saturation function S_E(E_1)
%    14 - E_2
%    15 - saturation function S_E(E_2)
%    16 - stabilizer gain K_F
%    17 - stabilizer time constant T_F
exc_con = [...
1 1 0 5.0 0.06 0 0 1.0  -1.0  -0.0485 0.25 3.5461 0.080 4.7281 0.260 0.040 1.0;
1 2 0 6.2 0.05 0 0 1.0  -1.0  -0.0633 .405 0.9183 0.660 1.2244 0.880 0.057 0.5;
1 3 0 5.0 0.06 0 0 1.0  -1.0  -.0198 0.50 2.3423 0.130 3.1230 0.340 0.080 1.0;
1 4 0 5.0 0.06 0 0 1.0  -1.0  -.0525 0.50 2.8681 0.080 3.8241 0.314 0.080 1.0;
1 5 0 40. 0.02 0 0 10.  -10.  1.0    .785 3.9267 0.070 5.2356 0.910 0.030 1.0;
1 6 0 5.0 0.02 0 0 1.0  -1.0  -.0419 .471 3.5868 0.064 4.7824 0.251 .0754 1.246;
1 7 0 40. 0.02 0 0 6.5  -6.5  1.0    .730 2.8017 0.530 3.7356 0.740 0.030 1.0;
1 8 0 5.0 0.02 0 0 1.0  -1.0  -0.047 .528 3.1915 0.072 4.2553 0.282 .0854 1.26;
1 9 0 40. 0.02 0 0 10.5 -10.5 1.0    1.40 4.2568 0.620 5.6757 0.850 0.030 1.0 ];

% modified exc_con;
exc_con2 = [...
1 1 0 40. 0.02 0 0 10.  -10.  1.0    .785 3.9267 0.070 5.2356 0.910 0.030 1.0;
1 2 0 40. 0.02 0 0 10.  -10.  1.0    .785 3.9267 0.070 5.2356 0.910 0.030 1.0;
1 3 0 40. 0.02 0 0 10.  -10.  1.0    .785 3.9267 0.070 5.2356 0.910 0.030 1.0;
1 4 0 40. 0.02 0 0 10.  -10.  1.0    .785 3.9267 0.070 5.2356 0.910 0.030 1.0;
1 5 0 40. 0.02 0 0 10.  -10.  1.0    .785 3.9267 0.070 5.2356 0.910 0.030 1.0;
1 6 0 40. 0.02 0 0 10.  -10.  1.0    .785 3.9267 0.070 5.2356 0.910 0.030 1.0;
1 7 0 40. 0.02 0 0 10.  -10.  1.0    .785 3.9267 0.070 5.2356 0.910 0.030 1.0;
1 8 0 40. 0.02 0 0 10.  -10.  1.0    .785 3.9267 0.070 5.2356 0.910 0.030 1.0;
1 9 0 40. 0.02 0 0 10.  -10.  1.0    .785 3.9267 0.070 5.2356 0.910 0.030 1.0 ];

[mpc, warnings] = psse2mpc('NETS-NYPS-68.RAW', 'case68', 1);
%ngen = size(mpc.gen,1);
%mpc.gencost = zeros(ngen,7);
fname = savecase('case68',mpc);
;
%{
mpw = pst2mp(bus, line, mac_con, 1, 'ac', true);
pst = mp2pst(mpw);
pst.coh = [];
g = pst2graph(pst, 'mode', 'dcpf');
T = ones(1,68);
T(g.gen) = 2;
part_viz(g, T);
%}